Version 4
SHEET 1 1152 680
WIRE 464 144 464 96
WIRE 688 144 688 96
WIRE 688 304 688 224
WIRE 464 352 464 224
WIRE 576 352 464 352
WIRE 944 384 816 384
WIRE 1088 384 944 384
WIRE 576 416 464 416
WIRE 464 480 464 416
WIRE 464 592 464 560
FLAG 464 592 0
FLAG 464 96 0
FLAG 688 96 0
FLAG 1088 448 0
FLAG 944 464 0
SYMBOL NOR 688 384 R0
SYMATTR InstName X1
SYMBOL voltage 688 240 R180
WINDOW 0 24 96 Left 2
WINDOW 3 24 16 Left 2
WINDOW 123 0 0 Left 0
WINDOW 39 0 0 Left 0
SYMATTR InstName V1
SYMATTR Value 1
SYMBOL voltage 464 464 R0
WINDOW 123 0 0 Left 0
WINDOW 39 0 0 Left 0
SYMATTR InstName V3
SYMATTR Value PULSE(0 1 5n 10p 10p 16n 32n)
SYMBOL voltage 464 240 R180
WINDOW 0 24 96 Left 2
WINDOW 3 24 16 Left 2
WINDOW 123 0 0 Left 0
WINDOW 39 0 0 Left 0
SYMATTR InstName V2
SYMATTR Value PULSE(0 1 1n 10p 10p 16n 32n)
SYMBOL cap 1072 384 R0
SYMATTR InstName C1
SYMATTR Value 100f
SYMBOL res 928 368 R0
SYMATTR InstName R1
SYMATTR Value 500k
TEXT 168 16 Left 2 !.include 90nm_bulk.txt
TEXT 168 56 Left 2 !.tran 0 64n 0 1p
