Version 4
SHEET 1 1344 680
WIRE 208 48 208 0
WIRE 416 112 336 112
WIRE 512 112 416 112
WIRE 0 160 0 96
WIRE 80 160 0 160
WIRE 640 160 336 160
WIRE 736 160 640 160
WIRE 80 192 -64 192
WIRE 80 224 0 224
WIRE 640 224 336 224
WIRE 736 224 640 224
WIRE 0 272 0 224
WIRE 416 272 336 272
WIRE 512 272 416 272
FLAG 416 32 0
FLAG 512 48 0
FLAG 640 80 0
FLAG 736 96 0
FLAG 416 352 0
FLAG 512 336 0
FLAG 640 304 0
FLAG 736 288 0
FLAG 208 -80 0
FLAG 0 16 0
FLAG -144 192 0
FLAG 0 352 0
SYMBOL BOE 192 192 R0
SYMATTR InstName X1
SYMBOL res 400 16 R0
SYMATTR InstName R2
SYMATTR Value 100k
SYMBOL cap 496 48 R0
SYMATTR InstName C2
SYMATTR Value 100f
SYMBOL res 624 64 R0
SYMATTR InstName R3
SYMATTR Value 100k
SYMBOL cap 720 96 R0
SYMATTR InstName C3
SYMATTR Value 100f
SYMBOL res 400 368 M180
WINDOW 0 36 76 Left 2
WINDOW 3 36 40 Left 2
SYMATTR InstName R4
SYMATTR Value 100k
SYMBOL cap 496 336 M180
WINDOW 0 24 56 Left 2
WINDOW 3 24 8 Left 2
SYMATTR InstName C4
SYMATTR Value 100f
SYMBOL res 624 320 M180
WINDOW 0 36 76 Left 2
WINDOW 3 36 40 Left 2
SYMATTR InstName R5
SYMATTR Value 100k
SYMBOL cap 720 288 M180
WINDOW 0 24 56 Left 2
WINDOW 3 24 8 Left 2
SYMATTR InstName C5
SYMATTR Value 100f
SYMBOL voltage 208 16 R180
WINDOW 0 24 96 Left 2
WINDOW 3 24 16 Left 2
WINDOW 123 0 0 Left 0
WINDOW 39 0 0 Left 0
SYMATTR InstName V1
SYMATTR Value 1
SYMBOL voltage 0 112 R180
WINDOW 0 24 96 Left 2
WINDOW 3 24 16 Left 2
WINDOW 123 0 0 Left 0
WINDOW 39 0 0 Left 0
SYMATTR InstName V2
SYMATTR Value PULSE(0 1 0 10p 10p 40n 80n)
SYMBOL voltage -48 192 R90
WINDOW 0 -32 56 VBottom 2
WINDOW 3 32 56 VTop 2
WINDOW 123 0 0 Left 0
WINDOW 39 0 0 Left 0
SYMATTR InstName V3
SYMATTR Value PULSE(0 1 0 10p 10p 20n 40n)
SYMBOL voltage 0 256 R0
WINDOW 123 0 0 Left 0
WINDOW 39 0 0 Left 0
SYMATTR InstName V4
SYMATTR Value PULSE(0 1 0 10p 10p 10n 20n)
TEXT -416 376 Left 2 !.tran 0 256n 0 1p
